13
2-Aminoacetic acid
N          1.33163       -0.06829        0.56969
C         -0.09599        0.14834        0.65951
C         -0.71035        0.16129       -0.73665
O         -0.05946        0.00458       -1.76676
N         -2.05919        0.36203       -0.78041
H         -0.53827       -0.66015        1.25145
H         -0.27713        1.10699        1.15383
C          2.11779       -0.11983        1.68382
H          1.73464       -0.18237       -0.35603
H         -2.50577        0.37849       -1.68846
H         -2.62842        0.49647        0.04403
O          1.71791        0.00607        2.83214
H          3.17867       -0.29111        1.43710
