16
(2S)-2-Aminopropanoic acid
N          1.55912        0.03072        0.25475
C          0.15855       -0.36574        0.27514
C         -0.32479       -0.47504       -1.18055
O          0.33905       -0.09176       -2.14216
N         -1.56307       -1.01824       -1.36498
C          2.40056       -0.19276        1.30646
H          1.92185        0.40731       -0.61689
H          0.08888       -1.35627        0.73939
C         -0.68927        0.63581        1.05054
H         -0.33728        0.73858        2.08217
H         -0.65015        1.62732        0.58571
H         -1.73940        0.32676        1.08300
H         -1.88317       -1.13786       -2.31772
H         -2.08641       -1.46076       -0.62191
O          2.08257       -0.70701        2.36876
H          3.42790        0.14680        1.09431
