29
(2S)-2-Amino-5-(diaminomethylideneamino)pentanoic acid
N          1.19785       -2.91724       -0.90530
C          1.47187       -1.53533       -1.28862
C          2.98237       -1.45769       -1.57600
O          3.79075       -2.26691       -1.12327
N          3.40454       -0.41322       -2.34306
C          1.04866       -0.57144       -0.17018
H          1.74477       -0.64829        0.67530
H          0.06494       -0.86888        0.21442
C          0.96498        0.88472       -0.62782
H          0.36948        0.95758       -1.54623
H          1.96399        1.26496       -0.86586
C          0.34113        1.77216        0.44437
H          0.92669        1.74126        1.36884
H         -0.67900        1.44455        0.66484
N          0.33756        3.14980       -0.04763
H          1.18583        3.48963       -0.49375
C         -0.69740        4.01999        0.06272
N          0.42740        4.54705       -0.59829
H          0.17261        5.51153       -0.84992
N         -1.83798        3.85839        0.59424
H         -2.10212        2.99246        1.02739
H         -2.47692        4.63833        0.57083
C         -0.05179       -3.46385       -0.96726
H          1.99217       -3.48844       -0.62710
H          0.91800       -1.33033       -2.21245
H          2.77242        0.17593       -2.86948
H          4.38953       -0.37405       -2.57475
O         -1.06398       -2.86778       -1.30596
H         -0.05724       -4.52406       -0.66435
