23
(2S)-2-Amino-4-carbamoylbutanoic acid
N          1.86910       -1.03429       -0.19813
C          0.46381       -1.13095       -0.57312
C          0.42107       -1.86556       -1.92305
O          1.31876       -1.79586       -2.75969
N         -0.70981       -2.58740       -2.17987
C         -0.15996        0.26565       -0.66924
C         -1.68315        0.24091       -0.79083
C         -2.27080        1.63618       -0.78202
O         -1.61792        2.67102       -0.76060
N         -3.63392        1.66832       -0.81942
H         -0.05383       -1.73291        0.18255
C          2.27993       -1.02956        1.10415
H          2.54955       -0.95127       -0.94822
H          0.26682        0.80898       -1.52228
H          0.11177        0.84519        0.22376
H         -2.11739       -0.32164        0.04303
H         -1.98630       -0.23728       -1.72840
H         -4.07996        2.57679       -0.80878
H         -4.21268        0.84125       -0.81597
H         -0.70124       -3.13412       -3.03271
H         -1.31237       -2.90476       -1.43234
O          1.54351       -1.12914        2.07482
H          3.37464       -0.93281        1.19390
