22
(2S)-2-Aminopentanedioic acid
N          0.27213       -1.89848       -0.12984
C          0.67686       -0.58056       -0.61210
C          2.20549       -0.64708       -0.82691
O          2.83732       -1.70284       -0.77738
N          2.85042        0.51061       -1.14800
C          0.26329        0.52532        0.36923
H         -0.49948        0.16693        1.07272
H          1.11490        0.82507        0.99303
C         -0.31330        1.73593       -0.36427
H          0.33365        2.06974       -1.18237
H         -1.28269        1.48245       -0.80846
C         -0.47093        2.89045        0.58069
O          0.43763        3.44642        1.17613
O         -1.74536        3.28680        0.72721
H         -1.70778        4.02359        1.37200
H          1.01027       -2.58657        0.00144
C         -1.02988       -2.31238       -0.14872
H          0.20818       -0.44113       -1.59409
H          2.46139        1.42745       -0.97290
H          3.85710        0.45133       -1.23522
O         -1.98361       -1.61786       -0.46845
H         -1.13599       -3.36323        0.16831
