25
(2S)-2-Amino-4-methylpentanoic acid
N          2.02801       -0.02534       -1.00250
C          0.67281       -0.57290       -0.93444
C          0.32310       -0.95268       -2.37895
O          0.57910       -0.23501       -3.34411
N         -0.28063       -2.16407       -2.55540
H          0.71058       -1.46923       -0.30726
C          2.89175       -0.07229        0.05450
H          2.29417        0.45816       -1.85519
C         -0.28405        0.47826       -0.35003
H          0.18407        0.88957        0.55572
H         -0.36448        1.32782       -1.04192
C         -1.70237        0.02792        0.05757
H         -2.09831        0.82754        0.69939
C         -1.71501       -1.25383        0.88792
H         -2.71331       -1.43161        1.30247
H         -1.01435       -1.18277        1.72634
H         -1.44875       -2.13028        0.28939
C         -2.66482       -0.07828       -1.12410
H         -3.69298       -0.19987       -0.76497
H         -2.44501       -0.93430       -1.76430
H         -2.63543        0.82819       -1.73743
H         -0.47138       -2.45693       -3.50474
H         -0.37867       -2.84197       -1.81287
O          2.65562       -0.58855        1.13694
H          3.85387        0.41509       -0.17475
