20
(2S,3R)-2-Amino-3-hydroxybutanoic acid
N          1.24531        1.02864        0.30986
C         -0.12352        0.50568        0.28027
C         -0.44318        0.07454        1.72006
O          0.42258       -0.26208        2.52635
N         -1.75859        0.05380        2.07830
C         -1.73943       -1.03708       -0.97433
C         -0.28135       -0.67892       -0.70506
O          0.30666       -0.40937       -1.98639
H         -1.80635       -1.80463       -1.75366
H         -2.29180       -0.16676       -1.34579
H         -2.24195       -1.41913       -0.08274
H          0.23250       -1.56278       -0.30939
H         -0.78010        1.33490       -0.00973
H          0.34116        0.56196       -2.11549
H         -2.48865        0.48410        1.52590
H         -1.96973       -0.18108        3.04094
C          1.72326        1.88437       -0.63806
H          1.85546        0.69630        1.05208
O          1.07012        2.27319       -1.59771
H          2.77141        2.17558       -0.46054
