30
(2S)-2-Amino-3-(1H-indol-3-yl)propanoic acid
N         -1.24683        0.82576       -1.66281
C          0.18004        1.05302       -1.89614
C          0.33546        1.30788       -3.40512
O         -0.51747        0.98159       -4.23061
N          1.48676        1.91584       -3.80720
C          1.02211       -0.15395       -1.45573
H          0.93972       -0.96035       -2.19675
H          0.62449       -0.56937       -0.52039
C          2.46978        0.17104       -1.23162
C          3.52530       -0.12924       -2.07111
N          4.67995        0.32310       -1.49036
H          5.60766        0.22439       -1.87886
C          4.40322        0.91643       -0.28130
C          3.02441        0.83205       -0.08856
C          2.47706        1.36091        1.09833
H          1.40706        1.30878        1.28726
C          3.32365        1.94966        2.04449
H          2.90060        2.35088        2.96237
C          4.69662        2.01971        1.82262
H          5.33769        2.47735        2.57268
C          5.26409        1.50493        0.65319
H          6.33510        1.55608        0.48751
H          3.55363       -0.63678       -3.02683
C         -1.82358        0.99652       -0.43759
H         -1.81840        0.59564       -2.47151
H          0.46352        1.96369       -1.35470
H          1.62472        2.07349       -4.79626
H          2.23924        2.13680       -3.16604
O         -1.23077        1.31483        0.58276
H         -2.91000        0.80998       -0.46066
