22
(2S)-2-Amino-3-methylbutanoic acid
N          1.65856       -1.00003       -0.23225
C          0.24916       -0.67108       -0.03453
C         -0.51256       -1.24553       -1.24515
O          0.02648       -1.48758       -2.32419
N         -1.84917       -1.45868       -1.07931
C          0.05001        0.84854        0.17149
C          0.36281        1.66999       -1.08319
C         -1.34891        1.19146        0.68789
H         -0.08473       -1.21013        0.86135
C          2.53536       -1.14113        0.80457
H          1.96568       -1.16727       -1.18649
H          0.75590        1.17355        0.94861
H          1.37613        1.47105       -1.44573
H          0.29554        2.74160       -0.86587
H         -0.33983        1.45303       -1.89475
H         -1.39783        2.24491        0.98479
H         -1.60203        0.58827        1.56563
H         -2.11735        1.03292       -0.07497
H         -2.34787       -1.88561       -1.84973
H         -2.29380       -1.44592       -0.17147
O          2.25929       -1.00228        1.98716
H          3.54860       -1.40306        0.45739
